# ====================
# | Model parameters |
# ====================
#
# Continuous equation parameters
 &PARM01
 tRef = 50*1.0,
 sRef = 50*34.5,
 viscAr = 1.E-4,
 viscC2Leith = 2.0,
 viscC2LeithD = 2.0,
 viscAhGridMax = 1.0,
 diffKhT = 0.0,
 diffKrT = 1.E-5,
 diffKhS = 0.0,
 diffKrS = 1.E-5,
 rhoConst = 1028.5,
 rhoNil   = 1028.5,
 rhoConstFresh = 1000.0,
 gravity = 9.81,
 eosType = 'MDJWF',
 hFacMin = 0.1,
 hFacMindr = 10.0,
 hFacInf = 0.05,
 hFacSup = 2.0,
 no_slip_sides  = .FALSE.,
 no_slip_bottom = .FALSE.,
 selectBotDragQuadr = 2,
 bottomDragQuadratic = 2.5E-3,
 implicitDiffusion = .TRUE.,
 implicitViscosity = .TRUE.,
 staggerTimeStep = .TRUE.,
 useRealFreshWaterFlux = .TRUE.,
 exactConserv = .TRUE.,
 implicitFreeSurface = .TRUE.,
 nonlinFreeSurf = 0,
 select_rStar = 0,
 tempAdvScheme = 77,
 saltAdvScheme = 77,
 debugLevel = -1,
 readBinaryPrec = 64,
 useSingleCPUio = .TRUE.,
 convertFW2Salt = -1,
 selectAddFluid = 1,
 temp_addMass = -92.5,
 salt_addMass = 0.0,
/

# Elliptic solver parameters
 &PARM02
 cg2dMaxIters = 300,
 cg2dTargetResidual = 1.E-7,
 /

# Time stepping parameters
 &PARM03
 dumpInitAndLast = .FALSE.,
 forcing_In_AB = .FALSE.,
 abEps = 0.1,
# pickupSuff='ckptA',
 deltaT = 600.0,
 niter0 = 0,
 endTime=3910464000.0,
# deltaT_chunkTwo = 1080.0,
# endTime_chunkTwo = 1728000.0,
# endTime = 864000.0,
# endTime = 2592000.0,
# endTime = 2678400.0,
# endTime = 31536000.0,
# endTime = 315360000.0,
# endTime = 630720000.0,
# endTime = 1262304000.0,
# endTime = 3153600000.0,
 pChkptFreq = 31536000.0,
# pChkptFreq = 315360000.0,
# ChkptFreq = 86400.0,
 ChkptFreq = 2592000.0,
# monitorFreq = 1,
 monitorFreq = 2592000.0,
 /

# Gridding parameters
 &PARM04
 usingSphericalPolarGrid = .TRUE.,
 delR= 10.0, 10.0, 10.0, 10.0, 12.0, 14.5, 17.5, 21.0, 25.0, 30.0,
       35.0, 40.0, 45.0, 50.0, 50.0, 50.0, 50.0, 50.0, 50.0, 50.0,
       50.0, 50.0, 50.0, 50.0, 50.0, 50.0, 50.0, 50.0, 50.0, 60.0,
       70.0, 80.0, 90.0,105.0,125.0,150.0,175.0,200.0,225.0,250.0,
      300.0,300.0,300.0,300.0,300.0,300.0,300.0,300.0,300.0,300.0,
 ygOrigin = -75.65,
 delY = 0.0248,0.0248,0.0249,0.0249,0.0250,0.0250,0.0250,0.0251,
      0.0251,0.0252,0.0252,0.0252,0.0253,0.0253,0.0254,0.0254,
      0.0255,0.0255,0.0255,0.0256,0.0256,0.0257,0.0257,0.0258,
      0.0258,0.0259,0.0259,0.0259,0.0260,0.0260,0.0261,0.0261,
      0.0262,0.0262,0.0262,0.0263,0.0263,0.0264,0.0264,0.0265,
      0.0265,0.0266,0.0266,0.0266,0.0267,0.0267,0.0268,0.0268,
      0.0269,0.0269,0.0270,0.0270,0.0271,0.0271,0.0271,0.0272,
      0.0272,0.0273,0.0273,0.0274,0.0274,0.0275,0.0275,0.0276,
      0.0276,0.0276,0.0277,0.0277,0.0278,0.0278,0.0279,0.0279,
      0.0280,0.0280,0.0281,0.0281,0.0282,0.0282,0.0283,0.0283,
      0.0284,0.0284,0.0284,0.0285,0.0285,0.0286,0.0286,0.0287,
      0.0287,0.0288,0.0288,0.0289,0.0289,0.0290,0.0290,0.0291,
      0.0291,0.0292,0.0292,0.0293,0.0293,0.0294,0.0294,0.0295,
      0.0295,0.0296,0.0296,0.0297,0.0297,0.0298,0.0298,0.0299,
      0.0299,0.0300,0.0300,0.0301,0.0301,0.0302,0.0302,0.0303,
      0.0303,0.0304,0.0304,0.0305,0.0305,0.0306,0.0306,0.0307,
      0.0307,0.0308,0.0308,0.0309,0.0309,0.0310,0.0310,0.0311,
      0.0311,0.0312,0.0312,0.0313,0.0313,0.0314,0.0314,0.0315,
      0.0315,0.0316,0.0316,0.0317,0.0317,0.0318,0.0319,0.0319,
      0.0320,0.0320,0.0321,0.0321,0.0322,0.0322,0.0323,0.0323,
      0.0324,0.0324,0.0325,0.0325,0.0326,0.0327,0.0327,0.0328,
      0.0328,0.0329,0.0329,0.0330,0.0330,0.0331,0.0331,0.0332,
      0.0332,0.0333,0.0334,0.0334,0.0335,0.0335,0.0336,0.0336,
      0.0337,0.0337,0.0338,0.0339,0.0339,0.0340,0.0340,0.0341,
      0.0341,0.0342,0.0342,0.0343,0.0344,0.0344,0.0345,0.0345,
      0.0346,0.0346,0.0347,0.0348,0.0348,0.0349,0.0349,0.0350,
      0.0350,0.0351,0.0352,0.0352,0.0353,0.0353,0.0354,0.0354,
      0.0355,0.0356,0.0356,0.0357,0.0357,0.0358,0.0358,0.0359,
      0.0360,0.0360,0.0361,0.0361,0.0362,0.0363,0.0363,0.0364,
      0.0364,0.0365,0.0366,0.0366,0.0367,0.0367,0.0368,0.0369,
      0.0369,0.0370,0.0370,0.0371,0.0372,0.0372,0.0373,0.0373,
      0.0374,0.0375,0.0375,0.0376,0.0376,0.0377,0.0378,0.0378,
      0.0379,0.0379,0.0380,0.0381,0.0381,0.0382,0.0382,0.0383,
      0.0384,0.0384,0.0385,0.0386,0.0386,0.0387,0.0387,0.0388,
      0.0389,0.0389,0.0390,0.0391,0.0391,0.0392,0.0392,0.0393,
      0.0394,0.0394,0.0395,0.0396,0.0396,0.0397,0.0398,0.0398,
      0.0399,0.0399,0.0400,0.0401,0.0401,0.0402,0.0403,0.0403,
      0.0404,0.0405,0.0405,0.0406,0.0406,0.0407,0.0408,0.0408,
      0.0409,0.0410,0.0410,0.0411,0.0412,0.0412,0.0413,0.0414,
      0.0414,0.0415,0.0416,0.0416,0.0417,0.0418,0.0418,0.0419,
      0.0420,0.0420,0.0421,0.0422,0.0422,0.0423,0.0424,0.0424,
      0.0425,0.0426,0.0426,0.0427,0.0428,0.0428,0.0429,0.0430,
      0.0430,0.0431,0.0432,0.0432,0.0433,0.0434,0.0434,0.0435,
      0.0436,0.0436,0.0437,0.0438,0.0439,0.0439,0.0440,0.0441,
      0.0441,0.0442,0.0443,0.0443,0.0444,0.0445,0.0445,0.0446,
      0.0447,0.0448,0.0448,0.0449,0.0450,0.0450,0.0451,0.0452,
      0.0452,0.0453,0.0454,0.0455,0.0455,0.0456,0.0457,0.0457,
      0.0458,0.0459,0.0460,0.0460,0.0461,0.0462,0.0462,0.0463,
  xgOrigin = 220.,
  dxSpacing = 0.1,
 /
# Input datasets
 &PARM05
 bathyFile = 'bathymetry_bedmach.bin',
 hydrogThetaFile = 'ICtheta_woa_clim.bin',
 hydrogSaltFile = 'ICsalt_woa_clim.bin',
 addMassFile = 'addmass_bedmach_merino.bin',
 /

