# Packages
 &PACKAGES
 useCal = .TRUE.,
 useDiagnostics = .TRUE.,
 useEXF   =.TRUE.,
 useKPP   =.TRUE.,
 useOBCS = .TRUE.,
 useSEAICE=.TRUE.,
 useShelfIce = .TRUE.,
 /
  
