# *******************
# Calendar Parameters
# *******************
 &CAL_NML
 TheCalendar='noLeapYear',
 startDate_1=18900101,
 startDate_2=000000,
 calendarDumps = .TRUE.,
 /
